8
SRC=ch3oco2.log, CHARGE=0, MULT=2
C         -0.58889        0.04294        0.05844
O         -1.48845       -0.89661        0.07812
O         -0.97314        1.21633       -0.03402
O          0.62842       -0.44929       -0.23173
C          1.91313        0.05123        0.10488
H          2.10258        0.97901       -0.40644
H          1.99927        0.18536        1.19769
H          2.61806       -0.69279       -0.27007
