6
SRC=../results/small_basis/reactant.log, CHARGE=-1, MULT=1
C          0.00000        1.30659        0.00000
H          1.02632        0.95674        0.00000
H         -0.52017        0.97788        0.89283
H         -0.52017        0.97788       -0.89283
Cl         0.02477        3.18165        0.00000
Br        -0.01163       -1.85257        0.00000
